Version 4
SHEET 1 1012 680
WIRE 448 -96 -16 -96
WIRE -496 -80 -496 -96
WIRE -352 -80 -352 -96
WIRE -16 0 -16 -96
WIRE 16 0 -16 0
WIRE 144 0 96 0
WIRE 304 0 224 0
WIRE -496 32 -496 0
WIRE -352 32 -352 0
WIRE -16 48 -16 0
WIRE 224 48 224 0
WIRE 352 176 352 144
WIRE -224 192 -256 192
WIRE -16 192 -16 112
WIRE -16 192 -144 192
WIRE 224 192 224 112
WIRE 224 192 -16 192
WIRE 304 192 304 0
WIRE 320 192 304 192
WIRE 448 208 448 -96
WIRE 448 208 384 208
WIRE 560 208 448 208
WIRE 320 224 272 224
WIRE -256 240 -256 192
WIRE 224 240 224 192
WIRE 352 288 352 240
WIRE -256 336 -256 320
WIRE 224 336 224 320
WIRE 272 336 272 224
WIRE 272 336 224 336
WIRE 224 352 224 336
FLAG 224 352 0
FLAG 560 208 Output
IOPIN 560 208 Out
FLAG -256 336 0
FLAG -496 32 0
FLAG -352 32 0
FLAG -496 -96 V+
FLAG -352 -96 V-
FLAG 352 144 V+
FLAG 352 288 V-
SYMBOL res -240 208 R270
WINDOW 0 32 56 VTop 2
WINDOW 3 0 56 VBottom 2
SYMATTR InstName R1
SYMATTR Value 39
SYMBOL res 0 16 R270
WINDOW 0 32 56 VTop 2
WINDOW 3 0 56 VBottom 2
SYMATTR InstName R2
SYMATTR Value 750
SYMBOL res 128 16 R270
WINDOW 0 32 56 VTop 2
WINDOW 3 0 56 VBottom 2
SYMATTR InstName R3
SYMATTR Value 39
SYMBOL res 208 224 R0
WINDOW 0 -37 42 Left 2
WINDOW 3 -26 83 Left 2
SYMATTR InstName R4
SYMATTR Value 1.8
SYMBOL cap -32 48 R0
WINDOW 0 -24 6 Left 2
WINDOW 3 -50 57 Left 2
SYMATTR InstName C1
SYMATTR Value 100n
SYMBOL cap 208 48 R0
SYMATTR InstName C2
SYMATTR Value 100n
SYMBOL voltage -256 224 R0
WINDOW 123 24 124 Left 2
WINDOW 39 0 0 Left 2
SYMATTR InstName V1
SYMATTR Value ""
SYMATTR Value2 AC 1
SYMBOL Opamps\\UniversalOpamp2 352 208 R0
SYMATTR InstName U2
SYMBOL voltage -496 -96 R0
WINDOW 123 0 0 Left 2
WINDOW 39 0 0 Left 2
SYMATTR InstName V2
SYMATTR Value 5
SYMBOL voltage -352 -96 R0
WINDOW 123 0 0 Left 2
WINDOW 39 0 0 Left 2
SYMATTR InstName V3
SYMATTR Value -5
TEXT 456 424 Left 2 !.ac oct 16 1k 500k
